14

N          2.44740        1.09840        0.20510
O          3.20770       -0.05620       -0.02710
N          2.40360       -1.18330       -0.24600
C          1.16080       -0.72420       -0.14900
N         -0.02650       -1.38410       -0.27370
C         -1.18780       -0.68310       -0.12920
N         -2.44740       -1.09840       -0.20510
O         -3.20770        0.05620        0.02710
N         -2.40360        1.18330        0.24600
C         -1.16080        0.72420        0.14900
N          0.02650        1.38410        0.27370
C          1.18780        0.68310        0.12920
H         -0.04560       -2.37670       -0.46990
H          0.04560        2.37670        0.46990
