19

C         -1.27230        0.12180        0.37530
N         -0.49320       -1.10350        0.24320
N         -1.17910       -2.24970        0.02590
O         -2.27780       -2.33400        0.57520
O         -0.63630       -3.09510       -0.68510
C          0.65240       -0.81550       -0.60670
O          1.87440       -1.27750       -0.06810
C          2.38360       -0.27320        0.70320
O          3.36700       -0.38260        1.41240
O          1.63590        0.86500        0.59640
C          0.80400        0.68570       -0.53460
N         -0.55980        1.13550       -0.38200
N         -0.76520        2.43330       -0.06620
O         -1.79700        2.69010        0.55470
O          0.07030        3.23190       -0.49020
H         -2.29120        0.04090       -0.02460
H         -1.33580        0.36210        1.44460
H          0.52190       -1.13300       -1.64970
H          1.29790        1.09770       -1.42350
