40

O         -1.99730       -2.79190        0.72950
N         -2.67440       -1.80220        0.99340
O         -3.87110       -1.77130        1.27550
N         -2.03610       -0.56610        0.93900
C         -0.57730       -0.59510        1.18970
C          0.25650       -1.12610       -0.01550
N          1.69790       -0.78790        0.07540
C          2.33860       -0.81270       -1.28320
C          3.77160       -0.26870       -1.58500
N          4.03570        0.98190       -0.83710
O          5.09820        1.13680       -0.22200
O          3.11670        1.82100       -0.83150
N          3.85550        0.07030       -3.04030
O          4.47030        1.08160       -3.40620
O          3.27990       -0.70130       -3.82630
N          4.85110       -1.27580       -1.43010
O          6.02160       -0.96270       -1.69220
O          4.50900       -2.43330       -1.13630
N          2.40250       -1.43960        1.06680
O          3.58210       -1.10620        1.14440
O          1.79570       -2.22910        1.78470
C         -2.73680        0.54790        1.65200
C         -3.59270        1.52140        0.80660
N         -4.72460        0.82320        0.16210
O         -4.50080        0.21680       -0.89860
O         -5.80830        0.77940        0.76310
N         -2.78350        2.22430       -0.22600
O         -3.34080        2.73160       -1.20950
O         -1.55700        2.28950       -0.03550
N         -4.14590        2.62410        1.64410
O         -4.82030        3.51480        1.10750
O         -3.87360        2.61270        2.85540
H         -0.21990        0.42820        1.36380
H         -0.36850       -1.14450        2.11500
H         -0.16270       -0.64120       -0.90760
H          0.13270       -2.20390       -0.16870
H          1.66300       -0.19840       -1.89940
H          2.22530       -1.83030       -1.68640
H         -3.33430        0.14280        2.48350
H         -1.97800        1.14020        2.18580
