20

O          0.70650       -2.66730        0.10170
C          0.37690       -1.49240        0.22120
N         -0.92900       -1.05240        0.08780
N         -1.95460       -1.98740       -0.22200
O         -1.79990       -3.14130        0.16530
O         -2.93050       -1.51410       -0.80920
C         -1.29350        0.32010       -0.16780
N         -0.39050        1.21680        0.54020
N         -0.71880        2.54900        0.39990
O         -1.90160        2.80500        0.17620
O          0.19940        3.35930        0.52330
C          0.99760        0.92450        0.21080
N          1.28060       -0.46950        0.45290
N          2.66810       -0.76790        0.54180
O          2.97900       -1.88070        0.95490
O          3.42080        0.16130        0.24020
H         -2.31410        0.47520        0.20550
H         -1.26220        0.49360       -1.25240
H          1.21510        1.14710       -0.84310
H          1.65080        1.52110        0.86060
