22

O          4.80340       -0.19240       -2.61670
N          4.66770        0.09840       -1.42740
O          5.55860        0.39010       -0.63290
N          3.38010        0.07020       -1.03770
C          2.97460        0.35310        0.22590
N          3.67620        0.70000        1.30970
O          2.75470        0.87040        2.33360
N          1.45600        0.62870        1.89260
C          1.61100        0.31560        0.60850
N          0.56410       -0.01240       -0.26730
N         -0.56410        0.01240        0.26730
C         -1.61100       -0.31560       -0.60850
N         -1.45600       -0.62870       -1.89260
O         -2.75470       -0.87040       -2.33360
N         -3.67620       -0.70000       -1.30970
C         -2.97460       -0.35310       -0.22590
N         -3.38010       -0.07020        1.03770
N         -4.66770       -0.09840        1.42740
O         -4.80340        0.19240        2.61670
O         -5.55860       -0.39000        0.63290
H          2.70430       -0.17810       -1.74620
H         -2.70430        0.17810        1.74620
