26

O         -3.23000        0.93410        2.07230
N         -2.00640        0.79590        2.06080
O         -1.24920        0.79250        3.03120
N         -1.45580        0.55190        0.83440
C         -2.12770       -0.53730        0.13300
N         -1.17150       -1.15640       -0.78500
N         -1.18890       -0.65220       -2.05630
O         -1.68700        0.46030       -2.22910
O         -0.69200       -1.38810       -2.90820
C          0.10510       -1.00810       -0.06000
C         -0.02190        0.30490        0.76610
N          0.71810        1.25410       -0.06790
N          1.06640        2.44480        0.50170
O          0.33170        2.86640        1.39250
O          2.07850        2.98660        0.05610
C          1.84430        0.48120       -0.58850
N          1.30240       -0.83940       -0.86750
N          2.19330       -1.86320       -0.93050
O          1.76640       -2.98160       -0.64430
O          3.34240       -1.56550       -1.25560
H         -3.06180       -0.21620       -0.34780
H         -2.41990       -1.32890        0.84010
H          0.17940       -1.83120        0.66620
H          0.49310        0.14100        1.72450
H          2.64330        0.42510        0.16660
H          2.24750        0.92940       -1.50460
