32

O          0.63180       -0.16710        1.13620
C          0.23350        0.28310        0.07670
N         -1.05690        0.21100       -0.36690
C         -2.04500       -0.55090        0.42520
C         -3.52030       -0.21910        0.19920
N         -3.75770        1.22300        0.42200
O         -4.21420        1.91510       -0.50050
O         -3.41240        1.69080        1.51970
N         -3.97010       -0.58240       -1.16620
O         -3.10950       -0.59650       -2.06490
O         -5.16170       -0.86070       -1.36370
N         -4.37740       -0.98200        1.13970
O         -4.01190       -2.13480        1.42110
O         -5.40850       -0.46130        1.59000
N          1.05640        0.90130       -0.81890
C          2.47190        1.16910       -0.49490
C          3.41150        0.00070       -0.14070
N          3.16540       -1.11880       -1.07920
O          2.34990       -2.00350       -0.77800
O          3.67580       -1.03630       -2.21050
N          4.84370        0.39730       -0.31590
O          5.72530       -0.46910       -0.20340
O          5.08890        1.59330       -0.54640
N          3.38780       -0.40520        1.28330
O          3.56000       -1.59360        1.59360
O          3.30150        0.51110        2.12020
H         -1.11650        0.10120       -1.37930
H         -1.78930       -0.41370        1.48530
H         -1.83670       -1.60690        0.20290
H          0.58710        1.59930       -1.38790
H          2.82720        1.66100       -1.41100
H          2.47030        1.94450        0.28150
