22

O          0.83810       -0.16230        2.24570
N          1.70410       -0.18850        1.37190
O          2.92260       -0.19890        1.54530
N          1.27010       -0.22190        0.09120
C          2.21570       -0.03310       -0.97970
C          1.28150       -0.02030       -2.18440
N         -0.10120        0.13810       -1.65710
C         -0.03830       -0.01780       -0.34160
C         -1.33030        0.04900        0.48200
N         -1.35780        1.25910        1.34080
O         -0.47720        2.11720        1.14170
O         -2.25160        1.40010        2.18830
N         -2.50140        0.15550       -0.43520
O         -2.98420       -0.89230       -0.89940
O         -2.91840        1.28490       -0.74430
N         -1.54770       -1.19030        1.26950
O         -0.80430       -2.15900        1.02640
O         -2.47100       -1.24550        2.09530
H          2.95100       -0.84110       -1.05480
H          2.73470        0.92870       -0.89340
H          1.34220       -0.96180       -2.74110
H          1.52340        0.80010       -2.86720
