28

O         -2.39240       -1.59890       -2.31090
N         -2.35650       -1.30720       -1.11640
O         -3.25420       -1.45860       -0.28880
C         -1.12160       -0.74400       -0.61750
C         -0.26970       -1.42120        0.45980
C          0.97060       -1.06020       -0.35590
C          0.11550       -0.42110       -1.45370
C          0.22820        0.90730       -0.69360
N          0.47770        2.19660       -1.28540
O          0.86970        2.20410       -2.45110
O          0.25950        3.17120       -0.56750
C         -1.01020        0.57280        0.09520
N         -2.13940        1.44550        0.25650
O         -2.53320        1.65420        1.40030
O         -2.63190        1.87820       -0.78540
C         -0.15700       -0.05650        1.15260
N         -0.27870        0.18100        2.56810
O          0.11280        1.27670        2.96700
O         -0.74660       -0.73340        3.24450
C          1.07980        0.25860        0.35330
N          2.32050        0.71900        0.91120
O          2.79100        0.02340        1.81130
O          2.81660        1.73180        0.42640
N          2.08480       -1.93880       -0.63480
O          3.01080       -1.44850       -1.27950
O          1.99960       -3.09400       -0.22090
H         -0.47890       -2.37100        0.93500
H          0.23300       -0.56670       -2.51990
