31

O         -0.97300       -0.21640       -2.72170
N         -0.32640        0.34370       -1.83880
O          0.20940        1.45150       -1.90330
C         -0.18390       -0.39120       -0.52970
C          1.31350       -0.64750       -0.15680
C          2.51480        0.32720       -0.41520
N          2.39700        1.65150        0.25050
O          3.39540        2.37650        0.36000
O          1.29030        1.94000        0.72960
N          3.73100       -0.29530        0.21500
O          4.66600       -0.68270       -0.49820
O          3.68780       -0.47550        1.44390
N          2.83520        0.50630       -1.85840
O          3.40240        1.53340       -2.24990
O          2.48670       -0.41830       -2.61240
C         -1.05400        0.31880        0.55240
C         -2.45850       -0.28780        0.84550
N         -3.20850        0.55090        1.82840
O         -2.53490        1.10550        2.71130
O         -4.44050        0.64510        1.74290
N         -3.26620       -0.38220       -0.39070
O         -3.50290        0.68310       -0.97930
O         -3.53350       -1.50050       -0.84870
N         -2.38000       -1.62870        1.49310
O         -1.26660       -2.18160        1.50070
O         -3.39310       -2.12290        2.00450
H         -0.61140       -1.38150       -0.73180
H          1.57280       -1.60280       -0.64200
H          1.30310       -0.91060        0.91140
H         -0.48910        0.31270        1.49490
H         -1.18330        1.37900        0.29280
