50

F          3.76610        0.23630       -2.41620
C          3.53400       -1.03610       -1.97300
C          2.86310       -1.00680       -0.59970
N          1.67600       -0.09820       -0.46600
C          1.90030        1.33080       -0.06880
C          1.99290        1.74430        1.40720
F          2.28730        3.07570        1.49660
N          3.09330        1.02540        2.10250
O          4.23280        1.50660        2.00910
O          2.84780       -0.07550        2.61850
N          0.76000        1.55290        2.21810
O         -0.13470        0.82270        1.75710
O          0.68490        2.13660        3.30880
C          0.45170       -0.62760       -0.92250
O          0.33630       -1.80660       -1.23950
C         -0.78280        0.27890       -1.05640
O         -0.65760        1.31700       -1.68920
N         -1.99340       -0.09430       -0.44530
C         -2.26640       -1.51540       -0.04380
C         -1.66930       -2.02480        1.27340
F         -0.33520       -1.78630        1.38160
N         -2.31380       -1.45520        2.49110
O         -3.37660       -0.82960        2.34330
O         -1.75570       -1.63320        3.58390
N         -1.87450       -3.50050        1.39150
O         -3.02800       -3.92910        1.22390
O         -0.88660       -4.21930        1.59960
C         -3.19800        0.77440       -0.66300
C         -3.10540        2.31190       -0.61560
F         -2.51660        2.86960       -1.70310
N         -2.39940        2.77960        0.60940
O         -1.27750        3.30350        0.48650
O         -2.93370        2.54040        1.70310
N         -4.46000        2.95800       -0.57410
O         -4.51600        4.19530       -0.49510
O         -5.45650        2.22330       -0.67380
N          2.73290       -1.74540       -3.00710
O          2.70830       -2.98540       -2.98100
O          2.08770       -1.04960       -3.80800
N          4.86940       -1.70620       -1.95660
O          5.16410       -2.38540       -0.96090
O          5.62630       -1.51450       -2.92060
H          2.55590       -2.01500       -0.29300
H          3.58890       -0.66620        0.14350
H          1.13650        1.95710       -0.52930
H          2.82790        1.63520       -0.57120
H         -1.91870       -2.13870       -0.87540
H         -3.35610       -1.65290       -0.05070
H         -3.92110        0.44680        0.09360
H         -3.59060        0.47550       -1.64360
