20

O          0.83500       -2.41070       -1.95860
C          0.57790       -1.57050       -1.11750
N         -0.73520       -1.19890       -0.83060
C         -0.79660       -0.37080        0.34450
C          0.69250       -0.03040        0.64050
N          0.78270        1.38200        0.38120
C         -0.48120        1.94340        0.20220
O         -0.64390        3.14760        0.14970
N         -1.38390        0.90800        0.14370
N         -2.75350        1.04200        0.12590
O         -3.37310       -0.02220        0.19600
O         -3.20460        2.18020        0.05200
N          1.39830       -0.85260       -0.27960
N          2.75490       -1.03660       -0.13910
O          3.29390       -1.83570       -0.89760
O          3.27230       -0.36640        0.75780
H         -1.51150       -1.71540       -1.23040
H         -1.24670       -0.92790        1.17450
H          0.94440       -0.23790        1.68700
H          1.57820        1.97290        0.59860
