20

O         -0.06200        0.30440       -2.43130
N         -0.87000       -0.26410       -1.68810
O         -1.76030       -1.01540       -2.10280
C         -0.71200       -0.04260       -0.22020
N         -1.50210        1.18930        0.07490
O         -2.33700        1.59320       -0.74300
O         -1.25250        1.77530        1.13450
N         -1.47010       -1.15520        0.42520
O         -2.64760       -0.98170        0.76040
O         -0.85650       -2.20960        0.62550
C          0.71200        0.04260        0.22020
N          1.63930       -0.79740       -0.59440
O          1.21200       -1.89120       -0.98090
O          2.76480       -0.37060       -0.87760
N          1.27570        1.42340        0.15150
O          2.04130        1.81830        1.03860
O          0.91400        2.13030       -0.79610
N          0.92720       -0.39600        1.63090
O          0.04500       -0.10920        2.44820
O          1.93880       -1.04380        1.92440
