33

O          0.64780       -2.32410        0.92070
N         -0.10550       -1.49780        1.43210
O         -0.98700       -1.74710        2.26030
C         -0.00350       -0.07150        0.93830
C          0.84310        0.05930       -0.37270
C          2.41490       -0.02680       -0.53970
N          2.99370       -1.35070       -0.21090
O          2.80900       -2.26230       -1.03250
O          3.51770       -1.52020        0.89560
N          2.77330        0.19540       -1.99880
O          1.84600        0.49550       -2.76820
O          3.95470        0.09540       -2.35810
N          3.14830        1.10110        0.10280
O          4.36190        1.02290        0.32390
O          2.46640        2.11280        0.34230
C         -1.47540        0.54450        0.84500
C         -2.52520        0.16070       -0.24450
N         -2.73720       -1.30000       -0.31630
O         -3.72870       -1.80050        0.22450
O         -1.80000       -1.95760       -0.79320
N         -2.16340        0.67140       -1.59830
O         -1.52360        1.73310       -1.62770
O         -2.47140        0.02890       -2.60820
N         -3.85730        0.80420        0.00710
O         -3.99320        1.43050        1.06820
O         -4.74190        0.71280       -0.85520
N          0.69860        0.58420        2.11600
O          1.82160        0.16000        2.39520
O          0.13760        1.52690        2.68080
H          0.40870       -0.65060       -1.09070
H          0.57860        1.05250       -0.75560
H         -1.95540        0.37870        1.82260
H         -1.35350        1.63840        0.79490
