21

O         -1.61090       -2.30590        1.42360
N         -1.93790       -1.23420        0.91140
O         -2.83180       -0.48060        1.29960
N         -1.27730       -0.87050       -0.23800
C         -1.27940        0.54930       -0.56800
N         -0.29970        1.28260        0.22550
N         -0.32830        2.65010        0.03090
O         -1.35980        3.12500       -0.44650
O          0.68510        3.27370        0.34940
C          1.04390        0.70540        0.10670
N          1.05250       -0.73910        0.36290
N          2.31360       -1.29980        0.29930
O          3.25710       -0.57170        0.61060
O          2.38510       -2.47410       -0.06600
C          0.05060       -1.43920       -0.43290
H         -1.05000        0.65670       -1.63920
H         -2.29480        0.95560       -0.46490
H          1.68710        1.18650        0.85550
H          1.46160        0.91720       -0.88930
H          0.30460       -1.36870       -1.50160
H          0.02870       -2.51840       -0.22880
