30

O         -3.27890        0.35460       -1.99760
N         -3.49670       -0.32960       -0.98170
O         -3.98680       -1.47000       -1.02880
C         -2.98160        0.18280        0.32560
C         -1.43520        0.10910        0.25530
C         -0.62340        1.24120        0.05640
C          0.77290        1.13940       -0.04950
C          1.44550       -0.09870        0.03750
C          2.98380       -0.18050       -0.13090
N          3.57320       -1.50020        0.25570
O          4.35580       -2.07930       -0.51230
O          3.26360       -1.95540        1.37160
N          3.76690        0.77550        0.71980
O          5.00550        0.77810        0.61640
O          3.15720        1.50100        1.52290
N          3.27500        0.10530       -1.56980
O          3.73590        1.21620       -1.88020
O          2.90570       -0.73220       -2.41220
C          0.62730       -1.23720        0.15890
C         -0.76910       -1.13550        0.26400
N         -3.60480       -0.61140        1.43540
O         -4.84370       -0.61450        1.53450
O         -2.86420       -1.20460        2.23720
N         -3.51850        1.55550        0.58190
O         -3.03950        2.18210        1.54430
O         -4.42220        2.01220       -0.13410
H         -1.04150        2.24610       -0.03200
H          1.32300        2.07200       -0.20440
H          1.03900       -2.24860        0.16910
H         -1.32450       -2.07350        0.35350
