24

O         -3.04530       -1.73870        0.95120
N         -2.43540       -1.59440       -0.11000
O         -2.83500       -1.90930       -1.23250
N         -1.15170       -1.14940       -0.02110
C         -0.59730       -0.53750       -1.22820
O         -1.18570        0.74650       -1.48940
C         -0.24530        1.68500       -0.95630
O          1.04490        1.17420       -1.30800
C          0.93670       -0.24340       -1.10340
N          1.48160       -0.64440        0.19300
C          0.70670       -0.05680        1.28510
O          0.79510        1.37690        1.28600
C         -0.39730        1.80820        0.62160
O         -1.43550        0.94910        1.10460
C         -0.82730       -0.35100        1.16040
N          2.83600       -0.58360        0.31870
O          3.28290       -0.52520        1.46580
O          3.49320       -0.69580       -0.71790
H         -0.74400       -1.17710       -2.10740
H         -0.39420        2.66120       -1.42690
H          1.44330       -0.75760       -1.92950
H          1.03970       -0.43030        2.26140
H         -0.61830        2.84290        0.89950
H         -1.14760       -0.84970        2.08350
