11

O         -2.53470        0.99240        0.41490
C         -1.49900        0.40380        0.16990
N         -1.36180       -0.87940       -0.35880
N         -0.03120       -1.21070       -0.49850
C          0.55810       -0.13850       -0.05840
N         -0.23590        0.86950        0.35860
N          2.02220       -0.11760       -0.05340
O          2.52970        0.93050        0.37690
O          2.63710       -1.11040       -0.46370
H         -2.11610       -1.50580       -0.61490
H          0.03160        1.76620        0.72720
