23

N          1.20440       -2.53810        0.17410
C          0.79890       -1.19690        0.08780
C          1.60140       -0.15210        0.60040
N          2.96060       -0.41470        1.08530
O          3.37480        0.29080        2.01420
O          3.61200       -1.30350        0.51800
C          1.15720        1.17890        0.63910
C         -0.13660        1.47950        0.19860
N         -0.51560        2.88620        0.18340
O         -0.85650        3.35100       -0.90830
O         -0.43160        3.49790        1.25250
C         -1.02130        0.48860       -0.25070
C         -2.43540        0.82050       -0.65850
F         -2.53350        1.14620       -1.96860
F         -2.95320        1.86000        0.04740
F         -3.30520       -0.20050       -0.44480
C         -0.51870       -0.83320       -0.30040
N         -1.36810       -1.86660       -0.87120
O         -1.79030       -2.74130       -0.10870
O         -1.58540       -1.78170       -2.08470
H          0.71300       -3.24390       -0.37220
H          2.21770       -2.70040        0.16440
H          1.81130        1.97340        1.00270
