13

C         -1.52650        0.20910        0.29560
C         -0.19050        0.54070        0.16940
N          0.40030        1.81200        0.41100
O          1.47420        2.04370       -0.15130
O         -0.23080        2.59090        1.13450
C          0.42880       -0.63580       -0.26480
N          1.82560       -0.90040       -0.48000
O          2.57610       -0.67870        0.48010
O          2.16130       -1.32010       -1.59530
N         -0.44320       -1.65270       -0.41600
N         -1.62470       -1.10360       -0.07280
H         -2.39300        0.78190        0.59970
H         -2.45790       -1.68700       -0.11010
