20

O          3.34010        0.78370        0.75570
N          2.70580       -0.23410        0.45740
O          3.18320       -1.36800        0.33690
C          1.28030       -0.09180        0.22450
C          0.48170        1.18480        0.41530
C         -0.22390        0.92930       -0.93550
C          0.62220       -0.35100       -1.11850
C         -0.48110       -1.16500       -0.40500
C          0.22350       -0.90830        0.94650
C         -0.62260        0.37220        1.12810
C         -1.28030        0.11090       -0.21490
N         -2.70570        0.20210       -0.47350
O         -3.05560        0.39510       -1.64310
O         -3.46710        0.06950        0.49090
H          0.85850        2.14370        0.74730
H         -0.39560        1.67770       -1.69850
H          1.12130       -0.64330       -2.03350
H         -0.86580       -2.12070       -0.73690
H          0.39760       -1.65390        1.71160
H         -1.11630        0.66720        2.04510
