31

O          3.12530        0.15750        2.31400
N          2.28140        0.99350        1.99140
O          2.19800        2.15540        2.39060
N          1.30430        0.57570        1.09650
C          1.67810       -0.58200        0.25580
C          0.53980       -1.07270       -0.67670
C         -0.64730       -1.69030        0.08970
N         -1.37480       -0.70940        0.91750
C         -1.69450        0.55090        0.21300
C         -0.49630        1.15510       -0.56510
C          0.63160        1.66070        0.35690
C          0.05370        0.10180       -1.53420
N         -0.97730        2.36370       -1.35520
O         -0.29040        2.71050       -2.32320
O         -1.99710        2.94060       -0.96460
N         -2.40990       -1.23710        1.67920
O         -3.27810       -0.44710        2.04980
O         -2.34910       -2.44180        1.92640
N          1.08020       -2.16860       -1.58400
O          0.46400       -2.38150       -2.63480
O          2.07290       -2.79670       -1.20290
H          2.55670       -0.31240       -0.34850
H          1.97340       -1.41900        0.90360
H         -1.35200       -2.14900       -0.61910
H         -0.25700       -2.50270        0.71870
H         -2.03800        1.29650        0.94340
H         -2.52760        0.36740       -0.48130
H          1.38190        2.20570       -0.23450
H          0.19480        2.38480        1.05880
H         -0.72940       -0.20360       -2.24190
H          0.88270        0.49430       -2.13910
