24

C         -2.47810       -0.17510       -1.86770
O         -2.32770        0.12590       -0.47510
C         -1.03860       -0.03250       -0.04800
C         -0.69090       -1.15800        0.70010
C          0.59480       -1.32930        1.22040
C          1.56620       -0.34490        0.96980
C          1.28840        0.80760        0.19610
N          2.21730        1.86360        0.07760
C         -0.05550        0.95490       -0.23640
N         -0.44030        2.19030       -0.89110
O         -1.30610        2.88420       -0.34540
O          0.14400        2.46010       -1.95080
N          2.90310       -0.56900        1.53030
O          2.97330       -1.19100        2.59820
O          3.87430       -0.14730        0.88570
N         -1.67220       -2.19360        0.96410
O         -2.15250       -2.77720       -0.01540
O         -1.90420       -2.45100        2.15140
H         -1.84770       -1.01380       -2.18390
H         -2.25360        0.70930       -2.47080
H         -3.52350       -0.44790       -2.03950
H          0.83180       -2.21340        1.81310
H          2.09710        2.46960       -0.73850
H          3.20060        1.57830        0.15570
