28

O         -4.10160        0.60560        0.43190
N         -3.45600        0.22690       -0.54460
O         -3.88400       -0.29130       -1.57480
N         -2.10620        0.42180       -0.48430
C         -1.20490       -0.37280       -1.36090
C          0.00600       -0.59990       -0.46960
N         -0.32040       -1.93800        0.24300
O         -0.56220       -1.92520        1.45390
O         -0.31810       -2.95150       -0.46580
C          1.47560       -0.74130       -0.82150
N          2.10620       -0.42180        0.48430
N          3.45600       -0.22690        0.54460
O          3.88400        0.29130        1.57480
O          4.10160       -0.60560       -0.43190
C          1.20490        0.37280        1.36090
C         -0.00600        0.59990        0.46960
N          0.32040        1.93800       -0.24300
O          0.31810        2.95150        0.46580
O          0.56220        1.92520       -1.45390
C         -1.47560        0.74130        0.82150
H         -1.66460       -1.30410       -1.71210
H         -0.96250        0.20960       -2.25530
H          1.79120       -0.04340       -1.60250
H          1.76200       -1.74410       -1.15920
H          0.96250       -0.20960        2.25530
H          1.66460        1.30410        1.71210
H         -1.79120        0.04340        1.60250
H         -1.76200        1.74410        1.15920
