11

N         -2.38170       -0.03380       -0.45570
N         -1.07840       -0.24310       -0.03370
N         -0.75440       -0.98920        1.04100
N          0.56830       -0.91970        1.14230
C          0.95740       -0.10930        0.12300
N          2.33750        0.23450       -0.10950
O          3.17760       -0.26710        0.65210
O          2.59400        1.00610       -1.04620
N         -0.04540        0.36790       -0.63050
H         -2.40500        0.80140       -1.03220
H         -2.96990        0.15230        0.34950
