11

O         -1.38210        1.02120       -1.00380
N         -1.02110       -0.34570       -1.00530
C         -0.15330       -0.76670       -0.01620
O         -0.04030       -1.96720        0.19660
N          0.48780        0.26160        0.59590
N          1.36300        0.11440        1.63160
O          1.79020       -1.00350        1.89630
O          1.62650        1.19750        2.15200
H         -1.06550        1.30880       -1.88370
H         -1.74780       -1.01790       -1.24180
H          0.14240        1.19730        0.48530
