28

O         -2.56150       -2.52390       -0.51010
C         -1.70280       -1.67780       -0.33910
N         -1.87670       -0.38860        0.22080
N         -2.95160       -0.10420        1.05940
O         -3.96730       -0.77450        0.91340
O         -2.75640        0.82210        1.84800
C         -0.60690        0.21360        0.48360
C          0.30840       -0.50780       -0.54300
N          1.72310       -0.36030       -0.15990
N          2.14810       -1.03540        0.96500
O          3.21050       -0.66230        1.45820
O          1.40460       -1.91710        1.39240
C          2.02740        1.09880       -0.13790
C          1.03900        1.92270        0.74850
N         -0.39390        1.67010        0.42460
N         -0.83500        2.32930       -0.70350
O         -1.61070        1.71400       -1.43340
O         -0.37720        3.45410       -0.89400
N         -0.32730       -1.78310       -0.65970
N          0.12320       -2.68270       -1.62260
O         -0.55740       -3.68390       -1.81430
O          1.18630       -2.36920       -2.16060
H         -0.35640       -0.11500        1.50420
H          0.18710       -0.05180       -1.53790
H          3.06030        1.30600        0.16770
H          1.96560        1.47130       -1.16970
H          1.20010        1.64800        1.80010
H          1.29730        2.98770        0.70000
