38

C          5.03040       -0.52390        1.43780
O          3.68190       -0.92050        1.23040
C          3.22110       -0.55920       -0.05760
O          1.87270       -0.99210       -0.25810
C          0.95100       -0.43200        0.69150
C          0.47480        0.91540        0.12380
N          0.75000        1.92320        1.19860
O         -0.08080        2.05650        2.10340
O          1.83700        2.50990        1.12930
C         -1.03000        0.76890       -0.18480
C         -1.13480       -0.78240       -0.27670
N         -2.54220       -1.20870       -0.32110
N         -3.32640       -0.99630        0.79630
O         -2.74640       -0.87790        1.87410
O         -4.54160       -0.92590        0.60780
C         -3.11360       -0.68830       -1.57780
C         -2.96700        0.84690       -1.70550
N         -1.59120        1.34730       -1.44140
N         -1.47110        2.71930       -1.59440
O         -2.27490        3.26850       -2.34680
O         -0.53510        3.24920       -1.00000
N         -0.26720       -1.24930        0.78850
N         -0.02650       -2.58530        0.90350
O         -0.58710       -3.33010        0.09650
O          0.70950       -2.91490        1.83390
H          5.32820       -0.82920        2.44450
H          5.68980       -1.01330        0.71460
H          5.12570        0.56340        1.35980
H          3.28920        0.52370       -0.20670
H          3.83210       -1.05380       -0.82000
H          1.41140       -0.35890        1.68480
H          1.03970        1.21700       -0.76630
H         -1.64160        1.14070        0.64730
H         -0.67170       -1.10050       -1.22740
H         -4.16130       -0.98160       -1.72030
H         -2.58570       -1.15950       -2.41900
H         -3.67300        1.32910       -1.01560
H         -3.27510        1.10470       -2.72710
