16

C         -1.02630        0.80930       -0.24450
C         -1.13250       -0.60180        0.35100
C         -0.14230       -1.12060       -0.70150
C         -0.03610        0.29060       -1.29700
C          1.13250        0.60180       -0.35100
C          0.14230        1.12060        0.70150
C          0.03610       -0.29060        1.29700
C          1.02630       -0.80930        0.24450
H         -1.86160        1.46810       -0.44350
H         -2.05440       -1.09170        0.63670
H         -0.25810       -2.03270       -1.27250
H         -0.06540        0.52720       -2.35280
H          2.05440        1.09170       -0.63670
H          0.25810        2.03270        1.27250
H          0.06550       -0.52720        2.35280
H          1.86160       -1.46810        0.44350
