29

F         -1.75530       -0.05050        1.47470
C         -2.24290       -0.41480        0.26190
C         -1.49000        0.26730       -0.88290
C         -0.02760        0.71550       -0.56150
C          0.90010       -0.40040       -0.00920
C          2.37460       -0.06510        0.30390
F          2.87340        0.90900       -0.49310
N          2.65260        0.33370        1.72680
O          3.77500        0.77620        2.00610
O          1.72390        0.19950        2.54060
N          3.23570       -1.28570        0.11520
O          4.19340       -1.21920       -0.66630
O          2.88490       -2.31540        0.71360
N          0.50830        1.24190       -1.88450
O          0.09420        2.33150       -2.29330
O          1.24210        0.47740       -2.52260
N         -0.04070        1.93420        0.33300
O          1.04950        2.39940        0.67380
O         -1.14070        2.36380        0.69690
N         -2.16520       -1.91540        0.24800
O         -2.83750       -2.55480        1.06620
O         -1.35770       -2.42540       -0.54470
N         -3.70690       -0.10090        0.21710
O         -4.29270       -0.33480       -0.85190
O         -4.22970        0.41790        1.21150
H         -2.06120        1.15140       -1.20820
H         -1.49460       -0.37040       -1.77900
H          0.89870       -1.20310       -0.76150
H          0.43620       -0.86280        0.86950
