14

N          2.33580       -1.31940        0.20410
O          3.19190       -0.21020        0.24710
N          2.49130        1.00150        0.16960
C          1.21640        0.63870        0.07980
N          0.09430        1.40780       -0.02090
C         -1.12050        0.79260       -0.10110
N         -2.33580        1.31940       -0.20410
O         -3.19190        0.21020       -0.24710
N         -2.49130       -1.00150       -0.16960
C         -1.21640       -0.63870       -0.07980
N         -0.09430       -1.40780        0.02090
C          1.12050       -0.79260        0.10110
H          0.16200        2.41750       -0.03590
H         -0.16200       -2.41750        0.03590
