36

O          1.72600        3.46560       -0.68480
C          0.60340        2.98390       -0.70460
N          0.32390        1.63620       -0.60380
C          1.43700        0.69660       -0.35380
C          1.17150       -0.73020       -0.96280
N         -0.10510       -0.76200       -1.70870
C         -0.02170       -0.52940       -3.07380
O          1.01960       -0.35800       -3.68880
C         -1.30670       -0.26020       -1.02080
C         -1.05620        1.17000       -0.40700
N         -1.21920        1.01530        1.04120
C         -0.94170       -0.41790        1.26460
C          0.66850       -0.72070        1.30120
N          1.45490        0.51000        1.10230
N          2.68550        0.42610        1.68180
O          2.67940        0.53350        2.90640
O          3.64340        0.19950        0.94400
N          1.01090       -1.61740        0.18980
N          1.98760       -2.54470        0.39940
O          2.53820       -3.00020       -0.60030
O          2.17590       -2.87770        1.56840
N         -1.55240       -1.12890        0.12710
N         -2.82130       -1.59870        0.29020
O         -3.50250       -1.70480       -0.72800
O         -3.14600       -1.89630        1.43730
N         -2.41590        1.40100        1.56920
O         -2.48160        1.35550        2.79460
O         -3.29500        1.73410        0.77540
H         -0.29640        3.61030       -0.82470
H          2.35430        1.13080       -0.76890
H          2.00320       -0.99900       -1.62360
H         -1.00510       -0.51810       -3.57400
H         -2.13210       -0.19330       -1.73890
H         -1.71910        1.91150       -0.86840
H         -1.29460       -0.76560        2.24550
H          0.82920       -1.15670        2.29740
