25

C          1.24390        0.19880        0.09390
N          2.60540       -0.34030        0.21430
N          3.27460       -0.63090       -0.94200
O          2.64790       -0.55580       -1.99980
O          4.44260       -1.00090       -0.80200
C          3.29160        0.58090        1.06080
C          4.48930        1.46140        0.88400
C          4.67230        1.40000        2.43020
C          3.77350        2.63770        2.59000
C          3.59460        2.70470        1.04470
C          2.40630        1.81660        1.21700
C          2.52150        1.71530        2.70460
C          3.42460        0.47880        2.54950
N          1.31580        1.63550        0.33270
N          0.15400        2.25610        0.67770
O          0.25850        3.31950        1.29290
O         -0.88940        1.71160        0.31060
H          0.65610       -0.28980        0.88580
H          0.73060       -0.03700       -0.84620
H          5.30020        1.34980        0.17680
H          5.61400        1.24270        2.94040
H          3.98600        3.48390        3.23060
H          3.63590        3.61340        0.45900
H          1.72840        1.84800        3.42830
H          3.38490       -0.42950        3.13600
