20

C         -2.61190        1.80810       -0.33320
O         -2.13400        0.46940       -0.40050
C         -0.80950        0.24960       -0.14960
C          0.14010        1.25600        0.05600
C          1.48710        0.93260        0.27970
C          1.89670       -0.40900        0.29530
C          0.97090       -1.43430        0.09240
C         -0.36790       -1.08180       -0.12190
N         -1.31810       -2.15640       -0.32160
O         -2.12860       -2.37250        0.58870
O         -1.20240       -2.81320       -1.36490
N          3.30940       -0.73680        0.52790
O          4.10300        0.20440        0.66180
O          3.61820       -1.93480        0.57750
H         -2.44000        2.24000        0.65820
H         -2.16130        2.42460       -1.11770
H         -3.69220        1.78630       -0.50530
H         -0.12990        2.30870        0.04250
H          2.20200        1.74010        0.43570
H          1.26850       -2.48130        0.09900
