12

N         -3.85940       -0.36670        1.11990
N         -3.25360       -0.08660        0.25890
N         -2.52660        0.30290       -0.93210
C         -1.21160        0.20740       -0.72470
N         -0.41530        0.53990       -1.75120
N          0.91800        0.45570       -1.57810
C          1.37970        0.04380       -0.38830
N          2.70550       -0.02740       -0.25300
N          3.05180       -0.48470        1.07730
N          3.37930       -0.82360        2.05950
N          0.58010       -0.28990        0.64220
N         -0.74800       -0.20610        0.46980
