34

O          2.07450        2.17480        2.22040
N          0.86870        2.22600        1.98710
O          0.03990        2.92820        2.56730
N          0.38400        1.37620        0.99710
C          1.37400        0.89810        0.01430
C          1.86120       -0.57530        0.25250
N          2.76620       -0.60160        1.42220
F          3.12160       -1.88800        1.77680
F          3.89780        0.16220        1.21110
N          2.60340       -1.00820       -0.94640
F          1.86860       -0.86880       -2.10530
F          3.07730       -2.29850       -0.82690
C          0.64860       -1.51420        0.57960
N         -0.46180       -1.49050       -0.37990
N         -0.56870       -2.51080       -1.30040
O         -1.59390       -2.53650       -1.98010
O          0.37470       -3.29730       -1.36770
C         -1.67590       -0.75400        0.00990
C         -1.77400        0.73690       -0.46290
N         -1.29450        0.90630       -1.84790
F         -1.98300        0.11520       -2.74340
F         -1.33290        2.22560       -2.25320
N         -3.19430        1.16720       -0.37780
F         -3.99690        0.48480       -1.27080
F         -3.69500        1.02500        0.90220
C         -0.96580        1.70790        0.48830
H          2.24030        1.57320       -0.05700
H          0.95620        0.97500       -0.99200
H          0.26330       -1.24950        1.57520
H          1.01220       -2.53970        0.73920
H         -2.56990       -1.28770       -0.34140
H         -1.79370       -0.78930        1.10240
H         -1.60180        1.82010        1.37800
H         -0.93040        2.70720        0.02950
