26

N          0.13720       -1.16280       -1.61880
C          1.22160       -0.38330       -2.04530
O          1.70840       -0.53260       -3.15070
N          1.59790        0.43310       -0.97970
N          2.97460        0.58290       -0.75010
O          3.31740        0.56900        0.43290
O          3.68690        0.69360       -1.74440
C          0.72750        0.24760        0.16850
C          0.14630       -1.16720       -0.17630
N         -1.18120       -1.51120        0.30380
N         -1.20910       -1.91950        1.62240
O         -0.12830       -1.97400        2.21100
O         -2.32110       -2.16420        2.08790
C         -2.11850       -0.41210        0.03340
C         -1.63170        0.91410        0.63930
N         -0.30050        1.31980        0.16640
N          0.12240        2.54420        0.64680
O          1.32510        2.78410        0.56780
O         -0.74760        3.29560        1.08950
H         -0.04280       -1.99320       -2.17230
H          1.21630        0.19540        1.14850
H          0.88700       -1.94160        0.07640
H         -3.12980       -0.63610        0.39660
H         -2.24110       -0.29050       -1.05130
H         -2.37860        1.66990        0.36230
H         -1.63810        0.83920        1.73530
