15

O          3.24110        0.77260       -0.26860
N          2.41750       -0.12440       -0.06340
O          2.65380       -1.31290        0.15150
C          1.06580        0.27350       -0.03100
C         -0.10980       -0.42850       -0.03120
C         -1.10060        0.55470        0.09100
N         -0.58400        1.80320        0.14080
N          0.74900        1.59410        0.05650
N         -2.53630        0.39160        0.10060
O         -3.21040        1.20900        0.73880
O         -2.97410       -0.57260       -0.53970
N         -0.28410       -1.82570       -0.11750
O          0.12330       -2.36530       -1.14900
O         -0.83390       -2.36230        0.84760
H          1.38260        2.39290        0.07370
