28

C         -0.29620       -2.57590       -1.11440
O         -0.29000       -1.88280        0.13630
C         -0.07530       -0.54220       -0.06690
C          1.23730       -0.04050       -0.06630
O          2.31930       -0.86800        0.07770
C          2.41130       -1.40020        1.40200
C          1.43690        1.31670       -0.34080
C          0.36970        2.18840       -0.57950
C         -0.92700        1.66770       -0.52370
C         -1.17160        0.31710       -0.25270
O         -2.45520       -0.15920       -0.29160
C         -2.89520       -0.61230        0.99150
N         -2.03590        2.57550       -0.74060
O         -2.86090        2.69360        0.17480
O         -2.03680        3.20930       -1.80390
N          2.78020        1.86060       -0.36800
O          3.45650        1.75590        0.66350
O          3.12410        2.44310       -1.40460
H          0.66860       -2.48350       -1.62460
H         -0.46970       -3.63600       -0.90710
H         -1.10500       -2.22010       -1.76180
H          3.46090       -1.64760        1.58800
H          1.83010       -2.32290        1.48480
H          2.09420       -0.67850        2.16380
H          0.54280        3.24110       -0.79640
H         -2.62490       -1.66160        1.14010
H         -2.50140        0.00370        1.80830
H         -3.98700       -0.54160        1.01200
