62

F          7.26850        0.27930       -1.06410
C          6.03670       -0.30450       -1.19770
C          4.96630        0.80340       -1.21290
N          3.52750        0.64460       -1.55180
C          2.59690        0.23630       -0.47960
C          1.33900        1.09060       -0.10850
C          0.44350        0.40460        1.01470
O         -0.67790        1.21480        1.40800
N         -0.51790        1.91590        2.65330
O          0.61170        1.91040        3.13610
O         -1.56330        2.41340        3.04920
C         -0.07620       -1.08900        0.66910
O          0.85640       -1.94940        1.39070
N          1.45540       -3.00950        0.65190
O          2.20610       -3.69670        1.33050
O          1.19340       -3.04270       -0.54600
C         -1.59870       -1.46580        1.01460
C         -2.63230       -0.76850        0.04300
N         -4.10340       -0.60890        0.21640
C         -4.69000        0.41020       -0.70860
C         -5.59960        1.44650       -0.03280
F         -6.48590        0.90730        0.84080
N         -4.83650        2.48720        0.72490
O         -3.59640        2.48210        0.62130
O         -5.47320        3.29140        1.42020
N         -6.36240        2.21100       -1.06440
O         -7.59830        2.24230       -0.98830
O         -5.70500        2.73010       -1.98210
N         -4.89090       -1.72960        0.40750
O         -4.33670       -2.69540        0.91780
O         -6.06640       -1.63910        0.05990
N         -1.89240       -1.16000        2.45680
O         -3.05280       -0.89540        2.78390
O         -0.92500       -1.07760        3.22560
N         -1.69470       -2.95930        0.86360
O         -1.49760       -3.67700        1.85000
O         -1.82900       -3.38050       -0.29360
N          1.78920        2.44030        0.41120
O          0.93870        3.33270        0.51500
O          2.96960        2.55350        0.76610
N          0.52820        1.41890       -1.32750
O         -0.54690        0.81910       -1.46320
O          0.98570        2.22770       -2.14300
N          3.22230        0.29320       -2.85240
O          2.14490       -0.27780       -3.01350
O          4.06460        0.58740       -3.69560
N          6.09090       -1.15590       -2.41450
O          5.18030       -1.98580       -2.56880
O          7.01040       -0.96500       -3.22230
N          5.93420       -1.25450       -0.04810
O          6.97330       -1.78550        0.36800
O          4.81090       -1.44840        0.44470
H          5.35600        1.59000       -1.87740
H          5.01840        1.30030       -0.23410
H          3.15960        0.14870        0.45640
H          2.28970       -0.78950       -0.68880
H          1.12610        0.25430        1.86140
H          0.03660       -1.22510       -0.40890
H         -2.46600       -1.14280       -0.97690
H         -2.29380        0.26710        0.02140
H         -5.23400       -0.10120       -1.51710
H         -3.88780        0.92610       -1.25660
