35

C         -0.57070        2.85440       -0.78250
O         -0.55560        2.00070        0.36720
C          0.18190        0.85880        0.18570
C         -0.49400       -0.38390        0.12540
C          0.30660       -1.52210       -0.11080
C          1.71000       -1.43870       -0.21290
C          2.40210       -0.23300       -0.04720
C          3.90510       -0.15300       -0.10410
C          1.59650        0.90650        0.13900
N          2.24690        2.18770        0.32710
O          2.36340        2.59870        1.48780
O          2.66580        2.75200       -0.69280
N          2.42220       -2.67990       -0.50010
O          2.20480       -3.63970        0.25020
O          3.17430       -2.68520       -1.48280
C         -2.02820       -0.52970        0.29990
C         -2.76110        0.06290       -0.91980
C         -2.51670        0.16360        1.59330
C         -2.49870       -2.00500        0.41780
H         -0.33200        2.32460       -1.71190
H         -1.57670        3.27480       -0.87530
H          0.11990        3.68840       -0.63220
H         -0.14370       -2.50760       -0.21900
H          4.23340        0.00180       -1.13650
H          4.29700        0.65950        0.51540
H          4.37040       -1.06310        0.28820
H         -3.84050       -0.12030       -0.85940
H         -2.39960       -0.38270       -1.85400
H         -2.63320        1.14400       -0.99960
H         -2.44350        1.25320        1.54950
H         -1.94200       -0.17580        2.46300
H         -3.57320       -0.05900        1.78620
H         -2.30450       -2.56990       -0.50130
H         -2.00660       -2.51900        1.25180
H         -3.57980       -2.06390        0.59470
