28

F         -0.96380       -0.03350        3.59310
N         -0.70160        0.83730        2.55620
F         -1.04820        2.12720        2.90080
N         -1.37820        0.42890        1.36200
N         -2.72060        0.32650        1.24900
C         -2.90700       -0.15130        0.01020
C         -1.71150       -0.31780       -0.69300
C         -0.71400        0.10070        0.18170
C          0.72440        0.16690        0.01910
C          1.66670       -0.83800       -0.17410
C          2.89430       -0.17630       -0.25590
N          2.77790        1.15420       -0.13810
N          1.44740        1.35760       -0.02170
N          0.83660        2.65030        0.06030
F          1.25970        3.32300        1.18770
F          1.09340        3.38910       -1.07570
N          4.21930       -0.72870       -0.33710
O          4.53960       -1.49330        0.58190
O          4.91350       -0.39700       -1.30460
N          1.43880       -2.24150       -0.27010
O          0.36240       -2.65560        0.17580
O          2.31360       -2.91480       -0.81600
N         -1.55710       -0.81210       -2.02070
O         -2.48390       -1.47990       -2.48100
O         -0.48670       -0.55310       -2.58290
N         -4.25980       -0.31730       -0.44770
O         -4.58320        0.36710       -1.42680
O         -4.97220       -1.11840        0.16760
