17

O          3.41250       -0.61730       -0.54110
N          2.45530       -0.30470        0.16310
O          2.45980       -0.00340        1.35910
N          1.24500       -0.30030       -0.49480
C          0.18500       -1.04390        0.24530
C         -0.80340        0.08860       -0.09730
N         -1.56990       -0.12020       -1.35210
O         -2.01750       -1.25340       -1.57080
O         -1.72090        0.85260       -2.10250
N         -1.66830        0.49550        1.03170
O         -2.14820       -0.40050        1.73770
O         -1.85130        1.70700        1.20570
C          0.46580        0.94900       -0.25790
H          0.35440       -1.19440        1.32120
H         -0.02760       -2.03340       -0.17550
H          0.49060        1.64510       -1.10420
H          0.73870        1.53370        0.63250
