27

O         -4.18900       -2.23310       -1.33090
N         -3.12240       -1.66710       -1.05690
O         -2.03340       -2.23350       -0.88130
C         -3.11840       -0.24170       -0.93450
N         -4.12070        0.44410       -1.49000
O         -3.77700        1.77450       -1.28040
N         -2.56210        1.88450       -0.61260
C         -2.15910        0.62910       -0.36780
N         -0.99960        0.28190        0.27530
C          0.18330        1.12570        0.10510
N          1.31570        0.46510       -0.54810
C          1.99030       -0.53240        0.10080
N          1.80590       -1.84810       -0.07680
O          2.69160       -2.48170        0.78610
N          3.43290       -1.55790        1.51550
C          2.98900       -0.37480        1.08500
N          3.56130        0.81060        1.64500
O          4.52610        0.70240        2.41210
O          3.03090        1.88220        1.31280
N          1.23570        0.32230       -1.91030
O          2.26040       -0.05260       -2.48600
O          0.17390        0.64720       -2.44840
N         -1.15170       -0.29100        1.52260
O         -2.27610       -0.69170        1.83410
O         -0.13970       -0.35410        2.22600
H         -0.05460        2.03860       -0.46140
H          0.50680        1.55150        1.06510
