23

O         -3.47590       -0.62920       -0.84220
N         -2.46630       -1.33270       -0.83120
O         -2.32300       -2.41350       -1.40210
N         -1.39240       -0.86940       -0.09650
C         -1.38960        0.59020        0.08340
N         -0.39770        1.29220        0.90750
C          0.90230        1.31470        0.47890
N          1.68830        2.38600        0.33020
O          2.90940        1.91090       -0.09870
N          2.88060        0.54070       -0.24890
C          1.65410        0.15110        0.11370
N          1.16570       -1.12730        0.14820
C         -0.09880       -1.40750       -0.54350
N          2.13540       -2.08570       -0.03000
O          2.09470       -2.73580       -1.07890
O          2.91820       -2.24180        0.90970
N         -0.82670        2.49860        1.40870
O         -0.35670        2.82660        2.50040
O         -1.67980        3.10580        0.75440
H         -2.35990        0.81740        0.54870
H         -1.40010        1.06460       -0.91120
H         -0.21650       -2.49980       -0.49240
H          0.03480       -1.15610       -1.60820
